Version 4
SHEET 1 1212 680
WIRE 0 -144 -32 -144
WIRE 112 -144 64 -144
WIRE -384 -96 -384 -112
WIRE -256 -96 -256 -112
WIRE -384 -64 -384 -96
WIRE -256 -64 -256 -96
WIRE -32 -32 -32 -144
WIRE 0 -32 -32 -32
WIRE 112 -32 112 -144
WIRE 112 -32 80 -32
WIRE 480 0 464 0
WIRE 608 0 560 0
WIRE 816 16 800 16
WIRE 944 16 896 16
WIRE -384 32 -384 16
WIRE -256 32 -256 16
WIRE 32 64 32 48
WIRE 528 80 528 64
WIRE 864 96 864 80
WIRE 32 112 32 64
WIRE -272 128 -384 128
WIRE -160 128 -272 128
WIRE -32 128 -32 -32
WIRE -32 128 -160 128
WIRE 0 128 -32 128
WIRE 528 128 528 80
WIRE 112 144 112 -32
WIRE 112 144 64 144
WIRE 208 144 112 144
WIRE 320 144 208 144
WIRE 464 144 464 0
WIRE 464 144 400 144
WIRE 496 144 464 144
WIRE 864 144 864 96
WIRE -384 160 -384 128
WIRE -272 160 -272 128
WIRE -160 160 -160 128
WIRE 0 160 -32 160
WIRE 608 160 608 0
WIRE 608 160 560 160
WIRE 656 160 608 160
WIRE 800 160 800 16
WIRE 800 160 736 160
WIRE 832 160 800 160
WIRE 496 176 464 176
WIRE 944 176 944 16
WIRE 944 176 896 176
WIRE 1040 176 944 176
WIRE -32 192 -32 160
WIRE 832 192 800 192
WIRE 464 208 464 176
WIRE 32 224 32 176
WIRE 800 224 800 192
WIRE 32 240 32 224
WIRE 528 240 528 192
WIRE 528 256 528 240
WIRE 864 256 864 208
WIRE -384 272 -384 240
WIRE -272 272 -272 224
WIRE -272 272 -384 272
WIRE -160 272 -160 240
WIRE -160 272 -272 272
WIRE 864 272 864 256
WIRE -384 304 -384 272
FLAG -384 32 0
FLAG -256 32 0
FLAG -384 -96 V+
FLAG -256 -96 V-
FLAG 32 64 V+
FLAG 32 224 V-
FLAG -32 192 0
FLAG -384 304 0
FLAG 208 144 VOUT_TIA
FLAG 528 80 V+
FLAG 528 240 V-
FLAG 464 208 0
FLAG 1040 176 VOUT_CHAIN
FLAG 864 96 V+
FLAG 864 256 V-
FLAG 800 224 0
SYMBOL voltage -384 -80 R0
WINDOW 123 0 0 Left 0
WINDOW 39 0 0 Left 0
SYMATTR InstName V1
SYMATTR Value 5V
SYMBOL voltage -256 -80 R0
WINDOW 123 0 0 Left 0
WINDOW 39 0 0 Left 0
SYMATTR InstName V2
SYMATTR Value -5V
SYMBOL cap -288 160 R0
SYMATTR InstName C_PD
SYMATTR Value 140p
SYMBOL res -400 144 R0
SYMATTR InstName R_PD
SYMATTR Value 5G
SYMBOL res 96 -48 R90
WINDOW 0 0 56 VBottom 2
WINDOW 3 32 56 VTop 2
SYMATTR InstName RF_STG1
SYMATTR Value {R_TIA}
SYMBOL current -160 160 R0
WINDOW 123 24 108 Left 2
WINDOW 39 0 0 Left 0
SYMATTR InstName I_PD
SYMATTR Value 0
SYMATTR Value2 AC 1 0
SYMBOL cap 64 -160 R90
WINDOW 0 0 32 VBottom 2
WINDOW 3 32 32 VTop 2
SYMATTR InstName CF_STG1
SYMATTR Value {C_TIA}
SYMBOL Opamps\\LT1115 -240 384 R0
SYMATTR InstName U2
SYMBOL Opamps\\LT1792 80 384 R0
SYMATTR InstName U3
SYMBOL Opamps\\LT1793 -80 384 R0
SYMATTR InstName U1
SYMBOL Opamps\\LT1169 32 80 R0
SYMATTR InstName U4
SYMBOL res 416 128 R90
WINDOW 0 0 56 VBottom 2
WINDOW 3 32 56 VTop 2
SYMATTR InstName R1
SYMATTR Value 1k
SYMBOL res 576 -16 R90
WINDOW 0 0 56 VBottom 2
WINDOW 3 32 56 VTop 2
SYMATTR InstName R2
SYMATTR Value 33k
SYMBOL Opamps\\LT1792 528 96 R0
SYMATTR InstName U5
SYMBOL res 752 144 R90
WINDOW 0 0 56 VBottom 2
WINDOW 3 32 56 VTop 2
SYMATTR InstName R3
SYMATTR Value 1k
SYMBOL res 912 0 R90
WINDOW 0 0 56 VBottom 2
WINDOW 3 32 56 VTop 2
SYMATTR InstName R4
SYMATTR Value 33k
SYMBOL Opamps\\LT1792 864 112 R0
SYMATTR InstName U6
TEXT -192 -256 Left 2 !.param R_TIA = 1G
TEXT -688 -248 Left 2 !;ac dec 100 1 10Meg
TEXT 184 -304 Left 2 ;Target Design:\nGain  10^12 V/A (240dB)\n-3dB BW = 20Hz\nInput-Ref Spot Noise = 0.42 fA/sqrt(Hz)\nInput-Ref Integrated Noise = \nOutput-Ref Spot Noise = 1.1mV/sqrt(Hz)\nOutput-Ref Integrated Noise = 6mVrms
TEXT -688 -216 Left 2 !.noise V(VOUT_CHAIN) I_PD dec 100 1m 1G
TEXT 184 -88 Left 2 ;Simulate, then click on VOUT_TIA to plot the noise PSD\nCtrl+Click on "V(onoise)" to get the integrated noise
TEXT -192 -224 Left 2 !.param C_TIA = 1p
TEXT 456 320 Left 2 ;For post-amp, we need minimum *voltage* noise\nbecause source impedance is low
